*Heading
** Job name: retrofit_f Model name: Retrofit_F
** Generated by: Abaqus/CAE 2024
*Preprint, echo=NO, model=NO, history=NO, contact=NO
**
** PARTS
**
*Part, name=HybridBlock
*Node
      1, 0.0381000005,  0.234950006,    0.4648799
      2, 0.0381000005,           0.,    0.4648799
      3, 0.0381000005,  0.234950006,  0.309919924
      4, 0.0381000005,           0.,  0.309919924
      5, 0.0381000005,  0.234950006,  0.154959962
      6, 0.0381000005,           0.,  0.154959962
      7, 0.0381000005,  0.234950006,           0.
      8, 0.0381000005,           0.,           0.
      9,           0.,  0.234950006,    0.4648799
     10,           0.,           0.,    0.4648799
     11,           0.,  0.234950006,  0.309919924
     12,           0.,           0.,  0.309919924
     13,           0.,  0.234950006,  0.154959962
     14,           0.,           0.,  0.154959962
     15,           0.,  0.234950006,           0.
     16,           0.,           0.,           0.
*Element, type=C3D8R
1,  9, 10, 12, 11,  1,  2,  4,  3
2, 11, 12, 14, 13,  3,  4,  6,  5
3, 13, 14, 16, 15,  5,  6,  8,  7
*Nset, nset=_G2, internal, generate
  1,  16,   1
*Elset, elset=_G2, internal, generate
 1,  3,  1
** Section: AnchorSection
*Solid Section, elset=_G2, material=Steel
,
*End Part
**  
*Part, name=HybridHoldown
*Node
      1, 0.00378001039,  0.380744576, 0.0381000005
      2, 0.00378001039,  0.253829718, 0.0381000005
      3, 0.00378001039,  0.126914859, 0.0381000005
      4, 0.00378001039,           0., 0.0381000005
      5, 0.00378001039,  0.380744576,           0.
      6, 0.00378001039,  0.253829718,           0.
      7, 0.00378001039,  0.126914859,           0.
      8, 0.00378001039,           0.,           0.
      9,           0.,  0.380744576, 0.0381000005
     10,           0.,  0.253829718, 0.0381000005
     11,           0.,  0.126914859, 0.0381000005
     12,           0.,           0., 0.0381000005
     13,           0.,  0.380744576,           0.
     14,           0.,  0.253829718,           0.
     15,           0.,  0.126914859,           0.
     16,           0.,           0.,           0.
*Element, type=C3D8R
1,  9, 10, 14, 13,  1,  2,  6,  5
2, 10, 11, 15, 14,  2,  3,  7,  6
3, 11, 12, 16, 15,  3,  4,  8,  7
*Nset, nset=_G2, internal, generate
  1,  16,   1
*Elset, elset=_G2, internal, generate
 1,  3,  1
** Section: AnchorSection
*Solid Section, elset=_G2, material=Steel
,
*End Part
**  
*Part, name=HybridPin
*Node
      1, 0.0149963861,  0.364617914, 0.0149963861
      2, 0.0149963861,  0.243078604, 0.0149963861
      3, 0.0149963861,  0.121539302, 0.0149963861
      4, 0.0149963861,           0., 0.0149963861
      5, 0.0149963861,  0.364617914,           0.
      6, 0.0149963861,  0.243078604,           0.
      7, 0.0149963861,  0.121539302,           0.
      8, 0.0149963861,           0.,           0.
      9,           0.,  0.364617914, 0.0149963861
     10,           0.,  0.243078604, 0.0149963861
     11,           0.,  0.121539302, 0.0149963861
     12,           0.,           0., 0.0149963861
     13,           0.,  0.364617914,           0.
     14,           0.,  0.243078604,           0.
     15,           0.,  0.121539302,           0.
     16,           0.,           0.,           0.
*Element, type=C3D8R
1,  9, 10, 14, 13,  1,  2,  6,  5
2, 10, 11, 15, 14,  2,  3,  7,  6
3, 11, 12, 16, 15,  3,  4,  8,  7
*Nset, nset=_G2, internal, generate
  1,  16,   1
*Elset, elset=_G2, internal, generate
 1,  3,  1
** Section: AnchorSection
*Solid Section, elset=_G2, material=Steel
,
*End Part
**  
*Part, name=Joist
*Node
      1, 0.0381000005,  0.234950006,  0.355599999
      2, 0.0381000005,           0.,  0.355599999
      3, 0.0381000005,  0.234950006,       0.1778
      4, 0.0381000005,           0.,       0.1778
      5, 0.0381000005,  0.234950006,           0.
      6, 0.0381000005,           0.,           0.
      7,           0.,  0.234950006,  0.355599999
      8,           0.,           0.,  0.355599999
      9,           0.,  0.234950006,       0.1778
     10,           0.,           0.,       0.1778
     11,           0.,  0.234950006,           0.
     12,           0.,           0.,           0.
*Element, type=C3D8R
1,  7,  8, 10,  9,  1,  2,  4,  3
2,  9, 10, 12, 11,  3,  4,  6,  5
*Nset, nset=_G2, internal, generate
  1,  12,   1
*Elset, elset=_G2, internal
 1, 2
** Section: JoistSection
*Solid Section, elset=_G2, material=Wood
,
*End Part
**  
*Part, name=Wall
*Node
      1,  0.406399995,   1.52400005,  0.330199987
      2,  0.406399995,   1.26999998,  0.330199987
      3,  0.406399995,   1.01600003,  0.330199987
      4,  0.406399995,  0.762000024,  0.330199987
      5,  0.406399995,  0.508000016,  0.330199987
      6,  0.406399995,  0.254000008,  0.330199987
      7,  0.406399995,           0.,  0.330199987
      8,  0.406399995,   1.52400005,           0.
      9,  0.406399995,   1.26999998,           0.
     10,  0.406399995,   1.01600003,           0.
     11,  0.406399995,  0.762000024,           0.
     12,  0.406399995,  0.508000016,           0.
     13,  0.406399995,  0.254000008,           0.
     14,  0.406399995,           0.,           0.
     15,  0.203199998,   1.52400005,  0.330199987
     16,  0.203199998,   1.26999998,  0.330199987
     17,  0.203199998,   1.01600003,  0.330199987
     18,  0.203199998,  0.762000024,  0.330199987
     19,  0.203199998,  0.508000016,  0.330199987
     20,  0.203199998,  0.254000008,  0.330199987
** ... 22 like lines cut
*Element, type=C3D8R
 1, 15, 16, 23, 22,  1,  2,  9,  8
 2, 16, 17, 24, 23,  2,  3, 10,  9
 3, 17, 18, 25, 24,  3,  4, 11, 10
 4, 18, 19, 26, 25,  4,  5, 12, 11
 5, 19, 20, 27, 26,  5,  6, 13, 12
 6, 20, 21, 28, 27,  6,  7, 14, 13
 7, 29, 30, 37, 36, 15, 16, 23, 22
 8, 30, 31, 38, 37, 16, 17, 24, 23
 9, 31, 32, 39, 38, 17, 18, 25, 24
10, 32, 33, 40, 39, 18, 19, 26, 25
11, 33, 34, 41, 40, 19, 20, 27, 26
12, 34, 35, 42, 41, 20, 21, 28, 27
*Nset, nset=_G2, internal, generate
  1,  42,   1
*Elset, elset=_G2, internal, generate
  1,  12,   1
** Section: WallSection
*Solid Section, elset=_G2, material=Masonry
,
*End Part
**  
**
** ASSEMBLY
**
*Assembly, name=Assembly
**  
*Instance, name=Wall-1, part=Wall
*End Instance
**  
*Instance, name=Joist-1, part=Joist
      0.1524,      1.14935,       0.0254
*End Instance
**  
*Instance, name=HybridPin-1, part=HybridPin
     0.17145, 1.06102104467731,       0.2032
*End Instance
**  
*Instance, name=HybridHoldown-1, part=HybridHoldown
0.148619989725531,      1.14935,      0.09652
*End Instance
**  
*Instance, name=HybridBlock-1, part=HybridBlock
      0.1524,      1.14935,        0.381
*End Instance
**  
*Nset, nset=_PickedSet17, internal, instance=Wall-1, generate
  7,  42,   7
*Elset, elset=_PickedSet17, internal, instance=Wall-1
  6, 12
*End Assembly
*Amplitude, name=RampAmp
             0.,              0.,              1.,              1.
** 
** MATERIALS
** 
*Material, name=Masonry
*Density
1900.,
*Elastic
 2e+09, 0.2
*Material, name=Steel
*Density
7850.,
*Elastic
 2e+11, 0.3
*Material, name=Wood
*Density
550.,
*Elastic
 1e+10, 0.35
** 
** INTERACTION PROPERTIES
** 
*Surface Interaction, name=IntProp
*Friction
 0.5,
*Surface Behavior, pressure-overclosure=HARD
** 
** BOUNDARY CONDITIONS
** 
** Name: FixWallBase Type: Displacement/Rotation
*Boundary
_PickedSet17, 1, 1
_PickedSet17, 2, 2
_PickedSet17, 3, 3
_PickedSet17, 4, 4
_PickedSet17, 5, 5
_PickedSet17, 6, 6
** 
** INTERACTIONS
** 
** Interaction: GeneralContact
*Contact, op=NEW
*Contact Inclusions, ALL EXTERIOR
*Contact Property Assignment
 ,  , IntProp
** ----------------------------------------------------------------
** 
** STEP: GustStep
** 
*Step, name=GustStep, nlgeom=YES
*Dynamic, Explicit
, 0.05
*Bulk Viscosity
0.06, 1.2
** 
** LOADS
** 
** 
** OUTPUT REQUESTS
** 
*Restart, write, number interval=1, time marks=NO
** 
** FIELD OUTPUT: F-Output-1
** 
*Output, field, variable=PRESELECT
** 
** HISTORY OUTPUT: H-Output-1
** 
*Output, history, variable=PRESELECT
*End Step
