*Heading
** Job name: retrofit_e Model name: Retrofit_E
** Generated by: Abaqus/CAE 2024
*Preprint, echo=NO, model=NO, history=NO, contact=NO
**
** PARTS
**
*Part, name=AnchorScrew
*Node
      1, 0.0097044073,  0.152400002, 0.0097044073
      2, 0.0097044073,           0., 0.0097044073
      3, 0.0097044073,  0.152400002,           0.
      4, 0.0097044073,           0.,           0.
      5,           0.,  0.152400002, 0.0097044073
      6,           0.,           0., 0.0097044073
      7,           0.,  0.152400002,           0.
      8,           0.,           0.,           0.
*Element, type=C3D8R
1, 5, 6, 8, 7, 1, 2, 4, 3
*Nset, nset=_G2, internal, generate
 1,  8,  1
*Elset, elset=_G2, internal
 1,
** Section: AnchorSection
*Solid Section, elset=_G2, material=Steel
,
*End Part
**  
*Part, name=AnchorUpliftPlate
*Node
      1,  0.198429227,  0.198429227, 0.0114449626
      2,  0.198429227, 0.0992146134, 0.0114449626
      3,  0.198429227,           0., 0.0114449626
      4,  0.198429227,  0.198429227,           0.
      5,  0.198429227, 0.0992146134,           0.
      6,  0.198429227,           0.,           0.
      7, 0.0992146134,  0.198429227, 0.0114449626
      8, 0.0992146134, 0.0992146134, 0.0114449626
      9, 0.0992146134,           0., 0.0114449626
     10, 0.0992146134,  0.198429227,           0.
     11, 0.0992146134, 0.0992146134,           0.
     12, 0.0992146134,           0.,           0.
     13,           0.,  0.198429227, 0.0114449626
     14,           0., 0.0992146134, 0.0114449626
     15,           0.,           0., 0.0114449626
     16,           0.,  0.198429227,           0.
     17,           0., 0.0992146134,           0.
     18,           0.,           0.,           0.
*Element, type=C3D8R
1,  7,  8, 11, 10,  1,  2,  5,  4
2,  8,  9, 12, 11,  2,  3,  6,  5
3, 13, 14, 17, 16,  7,  8, 11, 10
4, 14, 15, 18, 17,  8,  9, 12, 11
*Nset, nset=_G2, internal, generate
  1,  18,   1
*Elset, elset=_G2, internal, generate
 1,  4,  1
** Section: AnchorSection
*Solid Section, elset=_G2, material=Steel
,
*End Part
**  
*Part, name=Joist
*Node
      1, 0.0381000005,  0.234950006,  0.355599999
      2, 0.0381000005,           0.,  0.355599999
      3, 0.0381000005,  0.234950006,       0.1778
      4, 0.0381000005,           0.,       0.1778
      5, 0.0381000005,  0.234950006,           0.
      6, 0.0381000005,           0.,           0.
      7,           0.,  0.234950006,  0.355599999
      8,           0.,           0.,  0.355599999
      9,           0.,  0.234950006,       0.1778
     10,           0.,           0.,       0.1778
     11,           0.,  0.234950006,           0.
     12,           0.,           0.,           0.
*Element, type=C3D8R
1,  7,  8, 10,  9,  1,  2,  4,  3
2,  9, 10, 12, 11,  3,  4,  6,  5
*Nset, nset=_G2, internal, generate
  1,  12,   1
*Elset, elset=_G2, internal
 1, 2
** Section: JoistSection
*Solid Section, elset=_G2, material=Wood
,
*End Part
**  
*Part, name=Wall
*Node
      1,  0.406399995,   1.52400005,  0.330199987
      2,  0.406399995,   1.26999998,  0.330199987
      3,  0.406399995,   1.01600003,  0.330199987
      4,  0.406399995,  0.762000024,  0.330199987
      5,  0.406399995,  0.508000016,  0.330199987
      6,  0.406399995,  0.254000008,  0.330199987
      7,  0.406399995,           0.,  0.330199987
      8,  0.406399995,   1.52400005,           0.
      9,  0.406399995,   1.26999998,           0.
     10,  0.406399995,   1.01600003,           0.
     11,  0.406399995,  0.762000024,           0.
     12,  0.406399995,  0.508000016,           0.
     13,  0.406399995,  0.254000008,           0.
     14,  0.406399995,           0.,           0.
     15,  0.203199998,   1.52400005,  0.330199987
     16,  0.203199998,   1.26999998,  0.330199987
     17,  0.203199998,   1.01600003,  0.330199987
     18,  0.203199998,  0.762000024,  0.330199987
     19,  0.203199998,  0.508000016,  0.330199987
     20,  0.203199998,  0.254000008,  0.330199987
** ... 22 like lines cut
*Element, type=C3D8R
 1, 15, 16, 23, 22,  1,  2,  9,  8
 2, 16, 17, 24, 23,  2,  3, 10,  9
 3, 17, 18, 25, 24,  3,  4, 11, 10
 4, 18, 19, 26, 25,  4,  5, 12, 11
 5, 19, 20, 27, 26,  5,  6, 13, 12
 6, 20, 21, 28, 27,  6,  7, 14, 13
 7, 29, 30, 37, 36, 15, 16, 23, 22
 8, 30, 31, 38, 37, 16, 17, 24, 23
 9, 31, 32, 39, 38, 17, 18, 25, 24
10, 32, 33, 40, 39, 18, 19, 26, 25
11, 33, 34, 41, 40, 19, 20, 27, 26
12, 34, 35, 42, 41, 20, 21, 28, 27
*Nset, nset=_G2, internal, generate
  1,  42,   1
*Elset, elset=_G2, internal, generate
  1,  12,   1
** Section: WallSection
*Solid Section, elset=_G2, material=Masonry
,
*End Part
**  
**
** ASSEMBLY
**
*Assembly, name=Assembly
**  
*Instance, name=Wall-1, part=Wall
*End Instance
**  
*Instance, name=Joist-1, part=Joist
      0.1524,      1.14935,       0.0254
*End Instance
**  
*Instance, name=AnchorUpliftPlate-1, part=AnchorUpliftPlate
0.0531853840855815, 1.16761038408558,       0.0254
*End Instance
**  
*Instance, name=AnchorScrew-1, part=AnchorScrew
     0.17145,     1.190625,      0.13208
*End Instance
**  
*Nset, nset=_PickedSet15, internal, instance=Wall-1, generate
  7,  42,   7
*Elset, elset=_PickedSet15, internal, instance=Wall-1
  6, 12
*End Assembly
*Amplitude, name=RampAmp
             0.,              0.,              1.,              1.
** 
** MATERIALS
** 
*Material, name=Masonry
*Density
1900.,
*Elastic
 2e+09, 0.2
*Material, name=Steel
*Density
7850.,
*Elastic
 2e+11, 0.3
*Material, name=Wood
*Density
550.,
*Elastic
 1e+10, 0.35
** 
** INTERACTION PROPERTIES
** 
*Surface Interaction, name=IntProp
*Friction
 0.5,
*Surface Behavior, pressure-overclosure=HARD
** 
** BOUNDARY CONDITIONS
** 
** Name: FixWallBase Type: Displacement/Rotation
*Boundary
_PickedSet15, 1, 1
_PickedSet15, 2, 2
_PickedSet15, 3, 3
_PickedSet15, 4, 4
_PickedSet15, 5, 5
_PickedSet15, 6, 6
** 
** INTERACTIONS
** 
** Interaction: GeneralContact
*Contact, op=NEW
*Contact Inclusions, ALL EXTERIOR
*Contact Property Assignment
 ,  , IntProp
** ----------------------------------------------------------------
** 
** STEP: GustStep
** 
*Step, name=GustStep, nlgeom=YES
*Dynamic, Explicit
, 0.05
*Bulk Viscosity
0.06, 1.2
** 
** LOADS
** 
** 
** OUTPUT REQUESTS
** 
*Restart, write, number interval=1, time marks=NO
** 
** FIELD OUTPUT: F-Output-1
** 
*Output, field, variable=PRESELECT
** 
** HISTORY OUTPUT: H-Output-1
** 
*Output, history, variable=PRESELECT
*End Step
